
#======================================================================
# CRYSTAL DATA
#----------------------------------------------------------------------
data_VESTA_phase_1

_chemical_name_common                  'K1 Mn2 O5'
_cell_length_a                         2.8400(10)
_cell_length_b                         2.8400(10)
_cell_length_c                         14.030(6)
_cell_angle_alpha                      90.000000
_cell_angle_beta                       90.000000
_cell_angle_gamma                      120.000000
_cell_volume                           97.999746
_space_group_name_H-M_alt              'P 63/m m c'
_space_group_IT_number                 194

loop_
_space_group_symop_operation_xyz
   'x, y, z'
   '-x, -y, -z'
   '-y, x-y, z'
   'y, -x+y, -z'
   '-x+y, -x, z'
   'x-y, x, -z'
   '-x, -y, z+1/2'
   'x, y, -z+1/2'
   'y, -x+y, z+1/2'
   '-y, x-y, -z+1/2'
   'x-y, x, z+1/2'
   '-x+y, -x, -z+1/2'
   'y, x, -z'
   '-y, -x, z'
   'x-y, -y, -z'
   '-x+y, y, z'
   '-x, -x+y, -z'
   'x, x-y, z'
   '-y, -x, -z+1/2'
   'y, x, z+1/2'
   '-x+y, y, -z+1/2'
   'x-y, -y, z+1/2'
   'x, x-y, -z+1/2'
   '-x, -x+y, z+1/2'

loop_
   _atom_site_label
   _atom_site_occupancy
   _atom_site_fract_x
   _atom_site_fract_y
   _atom_site_fract_z
   _atom_site_adp_type
   _atom_site_U_iso_or_equiv
   _atom_site_type_symbol
   Mn1        0.8900  0.000000     0.000000     0.000000    Uani  0.012358 Mn
   O1         1.0     0.666667     0.333333     0.07040(16) Uiso  0.017300 O
   K1         0.0800  0.227(6)     0.773(6)     0.250000    Uani  0.094289 K
   Zn2+       0.0400  0.000000     0.000000     0.1506(13)  Uiso  0.025000 Zn
   O2         0.2300  0.333333     0.666667     0.250000    Uiso  0.080000 O
   O3         0.1200  0.226(13)    0.113(7)     0.250000    Uiso  0.047000 O

loop_
   _atom_site_aniso_label
   _atom_site_aniso_U_11
   _atom_site_aniso_U_22
   _atom_site_aniso_U_33
   _atom_site_aniso_U_12
   _atom_site_aniso_U_13
   _atom_site_aniso_U_23
   Mn1	 0.01150  0.01150  0.01410  0.00577  0.00000  0.00000
   K1	 0.15800  0.15800  0.00820  0.11000  0.00000  0.00000
